/*---------------------------------------------------------------------------*\
| =========                 |                                                 |
| \\      /  F ield         | OpenFOAM: The Open Source CFD Toolbox           |
|  \\    /   O peration     | Version:  v1912                                 |
|   \\  /    A nd           | Website:  www.openfoam.com                      |
|    \\/     M anipulation  |                                                 |
\*---------------------------------------------------------------------------*/
Build  : _f3950763fe-20191219 OPENFOAM=1912
Arch   : "LSB;label=32;scalar=64"
Exec   : reconstructPar
Date   : Mar 24 2020
Time   : 08:54:30
Host   : betak
PID    : 11296
I/O    : uncollated
Case   : /home/betak/OpenFOAM/betak-v1912/FURST/myTurbulenceModels-master/testCases/T3A/mykkLOmega
nProcs : 1
trapFpe: Floating point exception trapping enabled (FOAM_SIGFPE).
fileModificationChecking : Monitoring run-time modified files using timeStampMaster (fileModificationSkew 10)
allowSystemOperations : Allowing user-supplied system call operations

// * * * * * * * * * * * * * * * * * * * * * * * * * * * * * * * * * * * * * //
Create time

--> FOAM Warning : 
    From function void* Foam::dlLibraryTable::openLibrary(const Foam::fileName&, bool)
    in file db/dynamicLibrary/dlLibraryTable/dlLibraryTable.C at line 65
    Could not load "libmyIncompressibleTurbulenceModels.so"
/home/betak/OpenFOAM/betak-v1912/platforms/linux64GccDPInt32Opt/lib/libmyIncompressibleTurbulenceModels.so: undefined symbol: _ZTIN4Foam29incompressibleTurbulenceModelE
--> FOAM Warning : 
    From function static Foam::IOstreamOption::compressionType Foam::IOstreamOption::compressionEnum(const Foam::word&)
    in file db/IOstreams/IOstreams/IOstreamOption.C at line 88
    Unknown compression specifier 'compressed', assuming no compression
--> FOAM Warning : 
    From function void* Foam::dlLibraryTable::openLibrary(const Foam::fileName&, bool)
    in file db/dynamicLibrary/dlLibraryTable/dlLibraryTable.C at line 65
    Could not load "libmyIncompressibleTurbulenceModels.so"
/home/betak/OpenFOAM/betak-v1912/platforms/linux64GccDPInt32Opt/lib/libmyIncompressibleTurbulenceModels.so: undefined symbol: _ZTIN4Foam29incompressibleTurbulenceModelE
--> FOAM Warning : 
    From function static Foam::IOstreamOption::compressionType Foam::IOstreamOption::compressionEnum(const Foam::word&)
    in file db/IOstreams/IOstreams/IOstreamOption.C at line 88
    Unknown compression specifier 'compressed', assuming no compression
--> FOAM Warning : 
    From function void* Foam::dlLibraryTable::openLibrary(const Foam::fileName&, bool)
    in file db/dynamicLibrary/dlLibraryTable/dlLibraryTable.C at line 65
    Could not load "libmyIncompressibleTurbulenceModels.so"
/home/betak/OpenFOAM/betak-v1912/platforms/linux64GccDPInt32Opt/lib/libmyIncompressibleTurbulenceModels.so: undefined symbol: _ZTIN4Foam29incompressibleTurbulenceModelE
--> FOAM Warning : 
    From function static Foam::IOstreamOption::compressionType Foam::IOstreamOption::compressionEnum(const Foam::word&)
    in file db/IOstreams/IOstreams/IOstreamOption.C at line 88
    Unknown compression specifier 'compressed', assuming no compression
--> FOAM Warning : 
    From function int main(int, char**)
    in file reconstructPar.C at line 245
    No times selected